! fiveZonePurchAir.idf
! Basic file description: Office building, intermediate floor.
!                         Each zone has one exterior wall.
!
! Author:   Michael Wetter, SRG-LBNL, MWetter@lbl.gov
!
! Date:     January 22, 2003
! Run:      Run for Chicago, IL location
! Building: 4 Zones, each zone has one exterior wall with window and overhang.
!           All other walls face the same condition as in the simulated zone.
!           0.5 ACH Infiltration
!           20C heating, 25C cooling
! System:   the system is a packaged VAV (DX cooling coil and gas heating coils).
!       the input is fully autosized.
! Plant:    None.
! Modified:
! ------------------------------------------------------------------

  Version,8.5;

! ------------------------------------------------------------------

  Site:Location,
    HOUSTON_TX_USA TMY2-12960,  !- Name
    29.98000,                !- Latitude {deg}
    -95.37000,               !- Longitude {deg}
    -6.000000,               !- Time Zone {hr}
    33.00000;                !- Elevation {m}

 ! Using Design Conditions from "United States Climate Design Data 2001 ASHRAE Handbook"
 ! HOUSTON_TX_USA Heating 99.6%, MaxDB=  -2.60 Wind Speed=   3.60 Wind Dir= 340.00

  SizingPeriod:DesignDay,
    HOUSTON_TX_USA Heating 99.6% Conditions,  !- Name
    1,                       !- Month
    21,                      !- Day of Month
    WinterDesignDay,         !- Day Type
    -2.600000,               !- Maximum Dry-Bulb Temperature {C}
    0.0000000E+00,           !- Daily Dry-Bulb Temperature Range {deltaC}
    ,                        !- Dry-Bulb Temperature Range Modifier Type
    ,                        !- Dry-Bulb Temperature Range Modifier Day Schedule Name
    Wetbulb,                 !- Humidity Condition Type
    -2.600000,               !- Wetbulb or DewPoint at Maximum Dry-Bulb {C}
    ,                        !- Humidity Condition Day Schedule Name
    ,                        !- Humidity Ratio at Maximum Dry-Bulb {kgWater/kgDryAir}
    ,                        !- Enthalpy at Maximum Dry-Bulb {J/kg}
    ,                        !- Daily Wet-Bulb Temperature Range {deltaC}
    100929.2,                !- Barometric Pressure {Pa}
    3.600000,                !- Wind Speed {m/s}
    340.0000,                !- Wind Direction {deg}
    No,                      !- Rain Indicator
    No,                      !- Snow Indicator
    No,                      !- Daylight Saving Time Indicator
    ASHRAEClearSky,          !- Solar Model Indicator
    ,                        !- Beam Solar Day Schedule Name
    ,                        !- Diffuse Solar Day Schedule Name
    ,                        !- ASHRAE Clear Sky Optical Depth for Beam Irradiance (taub) {dimensionless}
    ,                        !- ASHRAE Clear Sky Optical Depth for Diffuse Irradiance (taud) {dimensionless}
    0.0000000E+00;           !- Sky Clearness

 ! HOUSTON_TX_USA Cooling (DB=>MWB) .4%, MaxDB=  35.50 MWB=  24.90

  SizingPeriod:DesignDay,
    HOUSTON_TX_USA Cooling .4% Conditions DB=>MWB,  !- Name
    7,                       !- Month
    21,                      !- Day of Month
    SummerDesignDay,         !- Day Type
    35.50000,                !- Maximum Dry-Bulb Temperature {C}
    10.10000,                !- Daily Dry-Bulb Temperature Range {deltaC}
    ,                        !- Dry-Bulb Temperature Range Modifier Type
    ,                        !- Dry-Bulb Temperature Range Modifier Day Schedule Name
    Wetbulb,                 !- Humidity Condition Type
    24.90000,                !- Wetbulb or DewPoint at Maximum Dry-Bulb {C}
    ,                        !- Humidity Condition Day Schedule Name
    ,                        !- Humidity Ratio at Maximum Dry-Bulb {kgWater/kgDryAir}
    ,                        !- Enthalpy at Maximum Dry-Bulb {J/kg}
    ,                        !- Daily Wet-Bulb Temperature Range {deltaC}
    100929.2,                !- Barometric Pressure {Pa}
    0.0000000E+00,           !- Wind Speed {m/s}
    0.0000000E+00,           !- Wind Direction {deg}
    No,                      !- Rain Indicator
    No,                      !- Snow Indicator
    No,                      !- Daylight Saving Time Indicator
    ASHRAEClearSky,          !- Solar Model Indicator
    ,                        !- Beam Solar Day Schedule Name
    ,                        !- Diffuse Solar Day Schedule Name
    ,                        !- ASHRAE Clear Sky Optical Depth for Beam Irradiance (taub) {dimensionless}
    ,                        !- ASHRAE Clear Sky Optical Depth for Diffuse Irradiance (taud) {dimensionless}
    1.000000;                !- Sky Clearness

! ------------------------------------------------------------------

  SimulationControl,
    Yes,                     !- Do Zone Sizing Calculation
    Yes,                     !- Do System Sizing Calculation
    No,                      !- Do Plant Sizing Calculation
    No,                      !- Run Simulation for Sizing Periods
    Yes;                     !- Run Simulation for Weather File Run Periods

! ------------------------------------------------------------------

  RunPeriod,
    ,                        !- Name
    1,                       !- Begin Month
    1,                       !- Begin Day of Month
    12,                      !- End Month
    31,                      !- End Day of Month
    Monday,                  !- Day of Week for Start Day
    yes,                     !- Use Weather File Holidays and Special Days
    yes,                     !- Use Weather File Daylight Saving Period
    no,                      !- Apply Weekend Holiday Rule
    yes,                     !- Use Weather File Rain Indicators
    yes;                     !- Use Weather File Snow Indicators

! ------------------------------------------------------------------

  Material,
    CONCRETE BLOCK,          !- Name
    Rough,                   !- Roughness
    0.2,                     !- Thickness {m}
    0.51,                    !- Conductivity {W/m-K}
    1400,                    !- Density {kg/m3}
    1000,                    !- Specific Heat {J/kg-K}
    0.9,                     !- Thermal Absorptance
    0.6,                     !- Solar Absorptance
    0.6;                     !- Visible Absorptance

  Material,
    FOAM INSULATION,         !- Name
    Rough,                   !- Roughness
    0.10,                    !- Thickness {m}
    0.030,                   !- Conductivity {W/m-K}
    10,                      !- Density {kg/m3}
    1400,                    !- Specific Heat {J/kg-K}
    0.9,                     !- Thermal Absorptance
    0.6,                     !- Solar Absorptance
    0.6;                     !- Visible Absorptance

  Material,
    CONCRETE SLAB050,        !- Name
    Rough,                   !- Roughness
    0.05,                    !- Thickness {m}
    1.13,                    !- Conductivity {W/m-K}
    1400,                    !- Density {kg/m3}
    1000,                    !- Specific Heat {J/kg-K}
    0.9,                     !- Thermal Absorptance
    0.6,                     !- Solar Absorptance
    0.6;                     !- Visible Absorptance

  Material,
    CONCRETE SLAB180,        !- Name
    Rough,                   !- Roughness
    0.18,                    !- Thickness {m}
    1.13,                    !- Conductivity {W/m-K}
    1400,                    !- Density {kg/m3}
    1000,                    !- Specific Heat {J/kg-K}
    0.9,                     !- Thermal Absorptance
    0.6,                     !- Solar Absorptance
    0.6;                     !- Visible Absorptance

  Material,
    BRICK120,                !- Name
    Rough,                   !- Roughness
    0.12,                    !- Thickness {m}
    1.0,                     !- Conductivity {W/m-K}
    2080,                    !- Density {kg/m3}
    790,                     !- Specific Heat {J/kg-K}
    0.9,                     !- Thermal Absorptance
    0.6,                     !- Solar Absorptance
    0.6;                     !- Visible Absorptance

! ------------------------------------------------------------------

  Material:NoMass,
    WOOD SIDING-1,           !- Name
    Rough,                   !- Roughness
    0.06,                    !- Thermal Resistance {m2-K/W}
    0.9,                     !- Thermal Absorptance
    0.6,                     !- Solar Absorptance
    0.6;                     !- Visible Absorptance

  Material:NoMass,
    R-1 INSULATION,          !- Name
    Rough,                   !- Roughness
    1.0,                     !- Thermal Resistance {m2-K/W}
    0.9,                     !- Thermal Absorptance
    0.6,                     !- Solar Absorptance
    0.6;                     !- Visible Absorptance

  Material:NoMass,
    CARPET,                  !- Name
    Rough,                   !- Roughness
    0.125,                   !- Thermal Resistance {m2-K/W}
    0.9,                     !- Thermal Absorptance
    0.6,                     !- Solar Absorptance
    0.6;                     !- Visible Absorptance

  Material:NoMass,
    OPEN DOOR RESISTANCE,    !- Name
    Rough,                   !- Roughness
    0.1,                     !- Thermal Resistance {m2-K/W}
    0.99,                    !- Thermal Absorptance
    0.01,                    !- Solar Absorptance
    0.01;                    !- Visible Absorptance

! ------------------------------------------------------------------
           ! Material layer names follow (listed from outside to inside):

  Construction,
    HWWALL,                  !- Name
    WOOD SIDING-1,           !- Outside Layer
    FOAM INSULATION,         !- Layer 2
    CONCRETE BLOCK;          !- Layer 3

        ! Material layer names follow (listed from outside to inside):

  Construction,
    HWFLOOR,                 !- Name
    CONCRETE SLAB180,        !- Outside Layer
    R-1 INSULATION,          !- Layer 2
    CONCRETE SLAB050,        !- Layer 3
    CARPET;                  !- Layer 4

                 ! Material layer names follow (listed from outside to inside):

  Construction,
    HWCEILING,               !- Name
    CARPET,                  !- Outside Layer
    CONCRETE SLAB050,        !- Layer 2
    R-1 INSULATION,          !- Layer 3
    CONCRETE SLAB180;        !- Layer 4

        ! Material layer names follow (listed from outside to inside):

  Construction,
    PARWALL,                 !- Name
    BRICK120;                !- Outside Layer

! Door between offices and interior zone.
! (Assumed to be open.)
        ! Material layer names follow (listed from outside to inside):

  Construction,
    OPEN DOOR,               !- Name
    OPEN DOOR RESISTANCE;    !- Outside Layer

! ------------------------------------------------------------------
! Window glass
! Window ID 501

  WindowMaterial:Glazing,
    LoE SPEC SEL CLEAR 6MM,  !- Name
    SpectralAverage,         !- Optical Data Type
    ,                        !- Window Glass Spectral Data Set Name
    .006,                    !- Thickness {m}
    .430,                    !- Solar Transmittance at Normal Incidence
    .300,                    !- Front Side Solar Reflectance at Normal Incidence
    .420,                    !- Back Side Solar Reflectance at Normal Incidence
    .770,                    !- Visible Transmittance at Normal Incidence
    .070,                    !- Front Side Visible Reflectance at Normal Incidence
    .060,                    !- Back Side Visible Reflectance at Normal Incidence
    .0,                      !- Infrared Transmittance at Normal Incidence
    .84,                     !- Front Side Infrared Hemispherical Emissivity
    .03,                     !- Back Side Infrared Hemispherical Emissivity
    .9;                      !- Conductivity {W/m-K}

! Window ID 2

  WindowMaterial:Glazing,
    CLEAR 3MM,               !- Name
    SpectralAverage,         !- Optical Data Type
    ,                        !- Window Glass Spectral Data Set Name
    .003,                    !- Thickness {m}
    .837,                    !- Solar Transmittance at Normal Incidence
    .075,                    !- Front Side Solar Reflectance at Normal Incidence
    .075,                    !- Back Side Solar Reflectance at Normal Incidence
    .898,                    !- Visible Transmittance at Normal Incidence
    .081,                    !- Front Side Visible Reflectance at Normal Incidence
    .081,                    !- Back Side Visible Reflectance at Normal Incidence
    .0,                      !- Infrared Transmittance at Normal Incidence
    .84,                     !- Front Side Infrared Hemispherical Emissivity
    .84,                     !- Back Side Infrared Hemispherical Emissivity
    .9;                      !- Conductivity {W/m-K}

! ------------------------------------------------------------------

  WindowMaterial:Gas,
    KRYPTON 8MM,             !- Name
    Krypton,                 !- Gas Type
    .0079;                   !- Thickness {m}

! ------------------------------------------------------------------

  WindowMaterial:Shade,
    ExtShade,                !- Name
    0.5,                     !- Solar Transmittance {dimensionless}
    0.1,                     !- Solar Reflectance {dimensionless}
    0.5,                     !- Visible Transmittance {dimensionless}
    0.1,                     !- Visible Reflectance {dimensionless}
    0.1,                     !- Infrared Hemispherical Emissivity {dimensionless}
    0.5,                     !- Infrared Transmittance {dimensionless}
    0.02,                    !- Thickness {m}
    0.1,                     !- Conductivity {W/m-K}
    0.05,                    !- Shade to Glass Distance {m}
    0.5,                     !- Top Opening Multiplier
    0.5,                     !- Bottom Opening Multiplier
    0.5,                     !- Left-Side Opening Multiplier
    0.5,                     !- Right-Side Opening Multiplier
    0;                       !- Airflow Permeability {dimensionless}

! =====================================================================
! Window shading control

  WindowProperty:ShadingControl,
    WinShadingControl NORTH, !- Name
    ExteriorShade,           !- Shading Type
    Double Pane Window Shaded,  !- Construction with Shading Name
    OnIfHighSolarOnWindow,   !- Shading Control Type
    Sch Summer,              !- Schedule Name
    200,                     !- Setpoint {W/m2, W or deg C}
    Yes,                     !- Shading Control Is Scheduled
    Yes,                     !- Glare Control Is Active
    ,                        !- Shading Device Material Name
    ,                        !- Type of Slat Angle Control for Blinds
    ;                        !- Slat Angle Schedule Name

  WindowProperty:ShadingControl,
    WinShadingControl WEST,  !- Name
    ExteriorShade,           !- Shading Type
    Double Pane Window Shaded,  !- Construction with Shading Name
    OnIfHighSolarOnWindow,   !- Shading Control Type
    Sch Summer,              !- Schedule Name
    %shaWes%,                !- Setpoint {W/m2, W or deg C}
    Yes,                     !- Shading Control Is Scheduled
    Yes,                     !- Glare Control Is Active
    ,                        !- Shading Device Material Name
    ,                        !- Type of Slat Angle Control for Blinds
    ;                        !- Slat Angle Schedule Name

  WindowProperty:ShadingControl,
    WinShadingControl EAST,  !- Name
    ExteriorShade,           !- Shading Type
    Double Pane Window Shaded,  !- Construction with Shading Name
    OnIfHighSolarOnWindow,   !- Shading Control Type
    Sch Summer,              !- Schedule Name
    %shaEas%,                !- Setpoint {W/m2, W or deg C}
    Yes,                     !- Shading Control Is Scheduled
    Yes,                     !- Glare Control Is Active
    ,                        !- Shading Device Material Name
    ,                        !- Type of Slat Angle Control for Blinds
    ;                        !- Slat Angle Schedule Name

  WindowProperty:ShadingControl,
    WinShadingControl SOUTH, !- Name
    ExteriorShade,           !- Shading Type
    Double Pane Window Shaded,  !- Construction with Shading Name
    OnIfHighSolarOnWindow,   !- Shading Control Type
    Sch Summer,              !- Schedule Name
    %shaSou%,                !- Setpoint {W/m2, W or deg C}
    Yes,                     !- Shading Control Is Scheduled
    Yes,                     !- Glare Control Is Active
    ,                        !- Shading Device Material Name
    ,                        !- Type of Slat Angle Control for Blinds
    ;                        !- Slat Angle Schedule Name

! =====================================================================
! Window constructions
               ! Material layer names follow (listed from outside to inside):

  Construction,
    Double Pane Window Shaded,  !- Name
    ExtShade,                !- Outside Layer
    LoE SPEC SEL CLEAR 6MM,  !- Layer 2
    KRYPTON 8MM,             !- Layer 3
    CLEAR 3MM;               !- Layer 4

       ! Material layer names follow (listed from outside to inside):

  Construction,
    Double Pane Window,      !- Name
    LoE SPEC SEL CLEAR 6MM,  !- Outside Layer
    KRYPTON 8MM,             !- Layer 2
    CLEAR 3MM;               !- Layer 3

! =====================================================================

  WindowProperty:FrameAndDivider,
    WinFrameAndDivider,      !- Name
    0.05,                    !- Frame Width {m}
    0.0,                     !- Frame Outside Projection {m}
    0.0,                     !- Frame Inside Projection {m}
    2.0,                     !- Frame Conductance {W/m2-K}
    1.5,                     !- Ratio of Frame-Edge Glass Conductance to Center-Of-Glass Conductance
    0.8,                     !- Frame Solar Absorptance
    0.8,                     !- Frame Visible Absorptance
    0.9,                     !- Frame Thermal Hemispherical Emissivity
    DividedLite,             !- Divider Type
    0.02,                    !- Divider Width {m}
    3,                       !- Number of Horizontal Dividers
    0,                       !- Number of Vertical Dividers
    0.0,                     !- Divider Outside Projection {m}
    0.0,                     !- Divider Inside Projection {m}
    2.0,                     !- Divider Conductance {W/m2-K}
    1.0,                     !- Ratio of Divider-Edge Glass Conductance to Center-Of-Glass Conductance
    0.8,                     !- Divider Solar Absorptance
    0.8,                     !- Divider Visible Absorptance
    0.9;                     !- Divider Thermal Hemispherical Emissivity

 End Lead Input;
! ========================================================================
! ========================================================================
! ========================================================================
 Simulation Data;

  Timestep,4;

  SurfaceConvectionAlgorithm:Inside,CeilingDiffuser;

  SurfaceConvectionAlgorithm:Outside,SimpleCombined;

  HeatBalanceAlgorithm,ConductionTransferFunction;

! ========================================================================

  Building,
    Office Building,         !- Name
    0,                       !- North Axis {deg}
    Country,                 !- Terrain
    4E-02,                   !- Loads Convergence Tolerance Value
    4E-03,                   !- Temperature Convergence Tolerance Value {deltaC}
    FullInteriorAndExterior, !- Solar Distribution
    25,                      !- Maximum Number of Warmup Days
    6;                       !- Minimum Number of Warmup Days

! -----------------------------------------------------------------------

  ZoneCapacitanceMultiplier:ResearchSpecial,
    1.2,                     !- Temperature Capacity Multiplier
    1.2,                     !- Humidity Capacity Multiplier
    1.2,                     !- Carbon Dioxide Capacity Multiplier
    1.0;                     !- Generic Contaminant Capacity Multiplier

! -----------------------------------------------------------------------

  GlobalGeometryRules,
    UpperLeftCorner,         !- Starting Vertex Position
    Counterclockwise,        !- Vertex Entry Direction
    Relative;                !- Coordinate System

! ========================================================================
! ========================================================================
! ========================================================================
! Begin zone geometry specification
! ========================================================================
! ========================================================================
! ========================================================================
! ZONE NORTH
! ========================================================================

  Zone,
    ZONE NORTH,              !- Name
    0,                       !- Direction of Relative North {deg}
    0,                       !- X Origin {m}
    0,                       !- Y Origin {m}
    0,                       !- Z Origin {m}
    1,                       !- Type
    5,                       !- Multiplier
    2.7,                     !- Ceiling Height {m}
    129.6;                   !- Volume {m3}

 ! -----------------------------------------------------------------------

  BuildingSurface:Detailed,
    ZONE NORTH SURFACE NORTH,!- Name
    Wall,                    !- Surface Type
    HWWALL,                  !- Construction Name
    ZONE NORTH,              !- Zone Name
    Outdoors,                !- Outside Boundary Condition
    ,                        !- Outside Boundary Condition Object
    SunExposed,              !- Sun Exposure
    WindExposed,             !- Wind Exposure
    0.5,                     !- View Factor to Ground
    4,                       !- Number of Vertices
    6,8,2.7,  !- X,Y,Z ==> Vertex 1 {m}
    6,8,0,  !- X,Y,Z ==> Vertex 2 {m}
    0,8,0,  !- X,Y,Z ==> Vertex 3 {m}
    0,8,2.7;  !- X,Y,Z ==> Vertex 4 {m}

  FenestrationSurface:Detailed,
    ZONE NORTH WINDOW,       !- Name
    Window,                  !- Surface Type
    DOUBLE PANE WINDOW,      !- Construction Name
    ZONE NORTH SURFACE NORTH,!- Building Surface Name
    ,                        !- Outside Boundary Condition Object
    0.5,                     !- View Factor to Ground
    WinShadingControl NORTH, !- Shading Control Name
    WinFrameAndDivider,      !- Frame and Divider Name
    1,                       !- Multiplier
    4,                       !- Number of Vertices
    %x1WinNor%,8,2.4,  !- X,Y,Z ==> Vertex 1 {m}
    %x1WinNor%,8,%y0WinNor%,  !- X,Y,Z ==> Vertex 2 {m}
    %x0WinNor%,8,%y0WinNor%,  !- X,Y,Z ==> Vertex 3 {m}
    %x0WinNor%,8,2.4;  !- X,Y,Z ==> Vertex 4 {m}

  Shading:Zone:Detailed,
    ZONE NORTH OVERHANG,     !- Name
    ZONE NORTH SURFACE NORTH,!- Base Surface Name
    ,                        !- Transmittance Schedule Name
    4,                       !- Number of Vertices
    %x1OveNor%,8,2.4,  !- X,Y,Z ==> Vertex 1 {m}
    %x0OveNor%,8,2.4,  !- X,Y,Z ==> Vertex 2 {m}
    %x0OveNor%,8.5,2.4,  !- X,Y,Z ==> Vertex 3 {m}
    %x1OveNor%,8.5,2.4;  !- X,Y,Z ==> Vertex 4 {m}

  BuildingSurface:Detailed,
    ZONE NORTH SURFACE WEST, !- Name
    Wall,                    !- Surface Type
    PARWALL,                 !- Construction Name
    ZONE NORTH,              !- Zone Name
    Surface,                 !- Outside Boundary Condition
    ZONE NORTH SURFACE EAST, !- Outside Boundary Condition Object
    NoSun,                   !- Sun Exposure
    NoWind,                  !- Wind Exposure
    0.5,                     !- View Factor to Ground
    4,                       !- Number of Vertices
    0,8,2.7,  !- X,Y,Z ==> Vertex 1 {m}
    0,8,0,  !- X,Y,Z ==> Vertex 2 {m}
    0,0,0,  !- X,Y,Z ==> Vertex 3 {m}
    0,0,2.7;  !- X,Y,Z ==> Vertex 4 {m}

  BuildingSurface:Detailed,
    ZONE NORTH SURFACE EAST, !- Name
    Wall,                    !- Surface Type
    PARWALL,                 !- Construction Name
    ZONE NORTH,              !- Zone Name
    Surface,                 !- Outside Boundary Condition
    ZONE NORTH SURFACE WEST, !- Outside Boundary Condition Object
    NoSun,                   !- Sun Exposure
    NoWind,                  !- Wind Exposure
    0.5,                     !- View Factor to Ground
    4,                       !- Number of Vertices
    6,0,2.7,  !- X,Y,Z ==> Vertex 1 {m}
    6,0,0,  !- X,Y,Z ==> Vertex 2 {m}
    6,8,0,  !- X,Y,Z ==> Vertex 3 {m}
    6,8,2.7;  !- X,Y,Z ==> Vertex 4 {m}

  BuildingSurface:Detailed,
    ZONE NORTH SURFACE SOUTH,!- Name
    Wall,                    !- Surface Type
    PARWALL,                 !- Construction Name
    ZONE NORTH,              !- Zone Name
    Surface,                 !- Outside Boundary Condition
    ZONE INTERIOR SURFACE NORTH,  !- Outside Boundary Condition Object
    NoSun,                   !- Sun Exposure
    NoWind,                  !- Wind Exposure
    0.5,                     !- View Factor to Ground
    4,                       !- Number of Vertices
    0,0,2.7,  !- X,Y,Z ==> Vertex 1 {m}
    0,0,0,  !- X,Y,Z ==> Vertex 2 {m}
    6,0,0,  !- X,Y,Z ==> Vertex 3 {m}
    6,0,2.7;  !- X,Y,Z ==> Vertex 4 {m}

  FenestrationSurface:Detailed,
    ZONE NORTH DOOR,         !- Name
    Door,                    !- Surface Type
    OPEN DOOR,               !- Construction Name
    ZONE NORTH SURFACE SOUTH,!- Building Surface Name
    ZONE INTERIOR DOOR TO ZONE NORTH 1,  !- Outside Boundary Condition Object
    0,                       !- View Factor to Ground
    ,                        !- Shading Control Name
    ,                        !- Frame and Divider Name
    1,                       !- Multiplier
    4,                       !- Number of Vertices
    2.25,0,2.1,  !- X,Y,Z ==> Vertex 1 {m}
    2.25,0,0,  !- X,Y,Z ==> Vertex 2 {m}
    3.75,0,0,  !- X,Y,Z ==> Vertex 3 {m}
    3.75,0,2.1;  !- X,Y,Z ==> Vertex 4 {m}

  BuildingSurface:Detailed,
    ZONE NORTH SURFACE FLOOR,!- Name
    Floor,                   !- Surface Type
    HWFLOOR,                 !- Construction Name
    ZONE NORTH,              !- Zone Name
    Surface,                 !- Outside Boundary Condition
    ZONE NORTH SURFACE CEILING,  !- Outside Boundary Condition Object
    NoSun,                   !- Sun Exposure
    NoWind,                  !- Wind Exposure
    0,                       !- View Factor to Ground
    4,                       !- Number of Vertices
    0,0,0,  !- X,Y,Z ==> Vertex 1 {m}
    0,8,0,  !- X,Y,Z ==> Vertex 2 {m}
    6,8,0,  !- X,Y,Z ==> Vertex 3 {m}
    6,0,0;  !- X,Y,Z ==> Vertex 4 {m}

  BuildingSurface:Detailed,
    ZONE NORTH SURFACE CEILING,  !- Name
    Roof,                    !- Surface Type
    HWCEILING,               !- Construction Name
    ZONE NORTH,              !- Zone Name
    Surface,                 !- Outside Boundary Condition
    ZONE NORTH SURFACE FLOOR,!- Outside Boundary Condition Object
    NoSun,                   !- Sun Exposure
    NoWind,                  !- Wind Exposure
    0,                       !- View Factor to Ground
    4,                       !- Number of Vertices
    0,8,2.7,  !- X,Y,Z ==> Vertex 1 {m}
    0,0,2.7,  !- X,Y,Z ==> Vertex 2 {m}
    6,0,2.7,  !- X,Y,Z ==> Vertex 3 {m}
    6,8,2.7;  !- X,Y,Z ==> Vertex 4 {m}

! ===========================================================

  ElectricEquipment,
    ZONE NORTH ElecEq 1,     !- Name
    ZONE NORTH,              !- Zone or ZoneList Name
    Sch Equ,                 !- Schedule Name
    EquipmentLevel,          !- Design Level Calculation Method
    384,                     !- Design Level {W}
    ,                        !- Watts per Zone Floor Area {W/m2}
    ,                        !- Watts per Person {W/person}
    0,                       !- Fraction Latent
    0.6,                     !- Fraction Radiant
    0,                       !- Fraction Lost
    General;                 !- End-Use Subcategory

  Lights,
    ZONE NORTH Lights 1,     !- Name
    ZONE NORTH,              !- Zone or ZoneList Name
    Sch Lig,                 !- Schedule Name
    LightingLevel,           !- Design Level Calculation Method
    816,                     !- Lighting Level {W}
    ,                        !- Watts per Zone Floor Area {W/m2}
    ,                        !- Watts per Person {W/person}
    0,                       !- Return Air Fraction
    0.4,                     !- Fraction Radiant
    0.2,                     !- Fraction Visible
    1.0,                     !- Fraction Replaceable
    GeneralLights;           !- End-Use Subcategory

  People,
    ZONE NORTH People 1,     !- Name
    ZONE NORTH,              !- Zone or ZoneList Name
    Sch Peo,                 !- Number of People Schedule Name
    People,                  !- Number of People Calculation Method
    1.6,                     !- Number of People
    ,                        !- People per Zone Floor Area {person/m2}
    ,                        !- Zone Floor Area per Person {m2/person}
    0.58,                    !- Fraction Radiant
    ,                        !- Sensible Heat Fraction
    Sch Act;                 !- Activity Level Schedule Name
