!-Generator IDFEditor 1.38a
!-Option OriginalOrderTop UseSpecialFormat
!-NOTE: All comments with '!-' are ignored by the IDFEditor and are generated automatically.
!-      Use '!' comments if they need to be retained when using the IDFEditor.

  Site:GroundTemperature:Shallow,18.5,17.97,18.92,20.39,24.26,27.24,29.25,29.86,28.82,26.51,23.41,20.54;

  Site:WeatherStation,
    10,                      !- Wind Sensor Height Above Ground {m}
    0.14,                    !- Wind Speed Profile Exponent
    270,                     !- Wind Speed Profile Boundary Layer Thickness {m}
    1.5;                     !- Air Temperature Sensor Height Above Ground {m}

  LifeCycleCost:RecurringCosts,
    EquipmentCost,           !- Name
    Replacement,             !- Category
    400,                     !- Cost
    ServicePeriod,           !- Start of Costs
    10,                      !- Years from Start
    ,                        !- Months from Start
    10,                      !- Repeat Period Years
    ,                        !- Repeat Period Months
    0;                       !- Annual escalation rate

  UtilityCost:Tariff,
    MonthlyServiceCharge,    !- Name
    EnergyTransfer:Building, !- Output Meter Name
    kWh,                     !- Conversion Factor Choice
    ,                        !- Energy Conversion Factor
    ,                        !- Demand Conversion Factor
    ,                        !- Time of Use Period Schedule Name
    ,                        !- Season Schedule Name
    ,                        !- Month Schedule Name
    ,                        !- Demand Window Length
    0.7;                     !- Monthly Charge or Variable Name

  UtilityCost:Charge:Simple,
    VAT,                     !- Name
    MonthlyServiceCharge,    !- Tariff Name
    SubTotal,                !- Source Variable
    Annual,                  !- Season
    Taxes,                   !- Category Variable Name
    0.1;                     !- Cost per Unit Value or Variable Name

  UtilityCost:Charge:Simple,
    EnergyCost,              !- Name
    MonthlyServiceCharge,    !- Tariff Name
    TotalEnergy,             !- Source Variable
    Annual,                  !- Season
    EnergyCharges,           !- Category Variable Name
    0.0728155;               !- Cost per Unit Value or Variable Name

  LifeCycleCost:Parameters,
    LCCAParameter,           !- Name
    EndOfYear,               !- Discounting Convention
    CurrentDollar,           !- Inflation Approach
    ,                        !- Real Discount Rate
    0.01,                    !- Nominal Discount Rate
    0.025,                   !- Inflation
    January,                 !- Base Date Month
    2011,                    !- Base Date Year
    January,                 !- Service Date Month
    2011,                    !- Service Date Year
    50,                      !- Length of Study Period in Years
    0,                       !- Tax rate
    None;                    !- Depreciation Method

  LifeCycleCost:RecurringCosts,
    MaintenanceCost,         !- Name
    Maintenance,             !- Category
    250,                     !- Cost
    ServicePeriod,           !- Start of Costs
    0,                       !- Years from Start
    0,                       !- Months from Start
    2,                       !- Repeat Period Years
    0,                       !- Repeat Period Months
    0;                       !- Annual escalation rate

  LifeCycleCost:NonrecurringCost,
    SalvageEquipments1,      !- Name
    Salvage,                 !- Category
    -50,                     !- Cost
    BasePeriod,              !- Start of Costs
    10;                      !- Years from Start

  LifeCycleCost:UsePriceEscalation,
    Electricity escalation VN,  !- Name
    Electricity,             !- Resource
    2010,                    !- Escalation Start Year
    January,                 !- Escalation Start Month
    0.9602,                  !- Year 1 Escalation
    0.9784,                  !- Year 2 Escalation
    0.9960,                  !- Year 3 Escalation
    0.9983,                  !- Year 4 Escalation
    0.9970,                  !- Year 5 Escalation
    1.0030,                  !- Year 6 Escalation
    1.0109,                  !- Year 7 Escalation
    1.0123,                  !- Year 8 Escalation
    1.0083,                  !- Year 9 Escalation
    1.0106,                  !- Year 10 Escalation
    1.0146,                  !- Year 11 Escalation
    1.0163,                  !- Year 12 Escalation
    1.0186,                  !- Year 13 Escalation
    1.0232,                  !- Year 14 Escalation
    1.0259,                  !- Year 15 Escalation
    1.0295,                  !- Year 16 Escalation
    1.0348,                  !- Year 17 Escalation
    1.0398,                  !- Year 18 Escalation
    1.0524,                  !- Year 19 Escalation
    1.0657,                  !- Year 20 Escalation
    1.0790,                  !- Year 21 Escalation
    1.0906,                  !- Year 22 Escalation
    1.0975,                  !- Year 23 Escalation
    1.1042,                  !- Year 24 Escalation
    1.1115,                  !- Year 25 Escalation
    1.1188,                  !- Year 26 Escalation
    1.1257,                  !- Year 27 Escalation
    1.1330,                  !- Year 28 Escalation
    1.1403,                  !- Year 29 Escalation
    1.1476;                  !- Year 30 Escalation

  Output:Table:Monthly,
    H-C SP not met,          !- Name
    2,                       !- Digits After Decimal
    Zone Heating Setpoint Not Met Time,  !- Variable or Meter 1 Name
    SumOrAverage,            !- Aggregation Type for Variable or Meter 1
    Site Snow on Ground Status,  !- Variable or Meter 2 Name
    Maximum,                 !- Aggregation Type for Variable or Meter 2
    Zone Cooling Setpoint Not Met Time,  !- Variable or Meter 3 Name
    SumOrAverage;            !- Aggregation Type for Variable or Meter 3

  ScheduleTypeLimits,
    Any Number;              !- Name

  ComponentCost:LineItem,
    Cost100,                 !- Name
    ,                        !- Type
    Construction,            !- Line Item Type
    100,                     !- Item Name
    ,                        !- Object End-Use Key
    ,                        !- Cost per Each {$}
    20;                      !- Cost per Area {$/m2}

  ComponentCost:LineItem,
    Cost110,                 !- Name
    ,                        !- Type
    Construction,            !- Line Item Type
    110,                     !- Item Name
    ,                        !- Object End-Use Key
    ,                        !- Cost per Each {$}
    26;                      !- Cost per Area {$/m2}

  ComponentCost:LineItem,
    Cost101,                 !- Name
    ,                        !- Type
    Construction,            !- Line Item Type
    101,                     !- Item Name
    ,                        !- Object End-Use Key
    ,                        !- Cost per Each {$}
    26.5;                    !- Cost per Area {$/m2}

  ComponentCost:LineItem,
    Cost111,                 !- Name
    ,                        !- Type
    Construction,            !- Line Item Type
    111,                     !- Item Name
    ,                        !- Object End-Use Key
    ,                        !- Cost per Each {$}
    31;                      !- Cost per Area {$/m2}

  ComponentCost:LineItem,
    Cost102,                 !- Name
    ,                        !- Type
    Construction,            !- Line Item Type
    102,                     !- Item Name
    ,                        !- Object End-Use Key
    ,                        !- Cost per Each {$}
    33;                      !- Cost per Area {$/m2}

  ComponentCost:LineItem,
    Cost112,                 !- Name
    ,                        !- Type
    Construction,            !- Line Item Type
    112,                     !- Item Name
    ,                        !- Object End-Use Key
    ,                        !- Cost per Each {$}
    35;                      !- Cost per Area {$/m2}

  ComponentCost:LineItem,
    Cost103,                 !- Name
    ,                        !- Type
    Construction,            !- Line Item Type
    103,                     !- Item Name
    ,                        !- Object End-Use Key
    ,                        !- Cost per Each {$}
    38;                      !- Cost per Area {$/m2}

  ComponentCost:LineItem,
    Cost200,                 !- Name
    ,                        !- Type
    Construction,            !- Line Item Type
    200,                     !- Item Name
    ,                        !- Object End-Use Key
    ,                        !- Cost per Each {$}
    45;                      !- Cost per Area {$/m2}

  ComponentCost:LineItem,
    Cost201,                 !- Name
    ,                        !- Type
    Construction,            !- Line Item Type
    201,                     !- Item Name
    ,                        !- Object End-Use Key
    ,                        !- Cost per Each {$}
    70;                      !- Cost per Area {$/m2}

  ComponentCost:LineItem,
    Cost210,                 !- Name
    ,                        !- Type
    Construction,            !- Line Item Type
    210,                     !- Item Name
    ,                        !- Object End-Use Key
    ,                        !- Cost per Each {$}
    140;                     !- Cost per Area {$/m2}

  ComponentCost:LineItem,
    Cost202,                 !- Name
    ,                        !- Type
    Construction,            !- Line Item Type
    202,                     !- Item Name
    ,                        !- Object End-Use Key
    ,                        !- Cost per Each {$}
    220;                     !- Cost per Area {$/m2}

  ComponentCost:LineItem,
    Cost300,                 !- Name
    ,                        !- Type
    Construction,            !- Line Item Type
    300,                     !- Item Name
    ,                        !- Object End-Use Key
    ,                        !- Cost per Each {$}
    45;                      !- Cost per Area {$/m2}

  ComponentCost:LineItem,
    Cost310,                 !- Name
    ,                        !- Type
    Construction,            !- Line Item Type
    310,                     !- Item Name
    ,                        !- Object End-Use Key
    ,                        !- Cost per Each {$}
    49;                      !- Cost per Area {$/m2}

  ComponentCost:LineItem,
    Cost301,                 !- Name
    ,                        !- Type
    Construction,            !- Line Item Type
    301,                     !- Item Name
    ,                        !- Object End-Use Key
    ,                        !- Cost per Each {$}
    52;                      !- Cost per Area {$/m2}

  ComponentCost:LineItem,
    Cost311,                 !- Name
    ,                        !- Type
    Construction,            !- Line Item Type
    311,                     !- Item Name
    ,                        !- Object End-Use Key
    ,                        !- Cost per Each {$}
    55;                      !- Cost per Area {$/m2}

  ComponentCost:LineItem,
    Cost302,                 !- Name
    ,                        !- Type
    Construction,            !- Line Item Type
    302,                     !- Item Name
    ,                        !- Object End-Use Key
    ,                        !- Cost per Each {$}
    58;                      !- Cost per Area {$/m2}

  ComponentCost:LineItem,
    Cost500,                 !- Name
    ,                        !- Type
    Construction,            !- Line Item Type
    500,                     !- Item Name
    ,                        !- Object End-Use Key
    ,                        !- Cost per Each {$}
    34;                      !- Cost per Area {$/m2}

  ComponentCost:LineItem,
    Cost501,                 !- Name
    ,                        !- Type
    Construction,            !- Line Item Type
    501,                     !- Item Name
    ,                        !- Object End-Use Key
    ,                        !- Cost per Each {$}
    39;                      !- Cost per Area {$/m2}

  ComponentCost:LineItem,
    Cost510,                 !- Name
    ,                        !- Type
    Construction,            !- Line Item Type
    510,                     !- Item Name
    ,                        !- Object End-Use Key
    ,                        !- Cost per Each {$}
    41;                      !- Cost per Area {$/m2}

  ComponentCost:LineItem,
    Cost502,                 !- Name
    ,                        !- Type
    Construction,            !- Line Item Type
    502,                     !- Item Name
    ,                        !- Object End-Use Key
    ,                        !- Cost per Each {$}
    43;                      !- Cost per Area {$/m2}

  ComponentCost:LineItem,
    Cost600,                 !- Name
    ,                        !- Type
    Construction,            !- Line Item Type
    600,                     !- Item Name
    ,                        !- Object End-Use Key
    ,                        !- Cost per Each {$}
    20;                      !- Cost per Area {$/m2}

  ComponentCost:LineItem,
    Cost601,                 !- Name
    ,                        !- Type
    Construction,            !- Line Item Type
    601,                     !- Item Name
    ,                        !- Object End-Use Key
    ,                        !- Cost per Each {$}
    26;                      !- Cost per Area {$/m2}

  ComponentCost:LineItem,
    Cost610,                 !- Name
    ,                        !- Type
    Construction,            !- Line Item Type
    610,                     !- Item Name
    ,                        !- Object End-Use Key
    ,                        !- Cost per Each {$}
    31;                      !- Cost per Area {$/m2}

  ComponentCost:LineItem,
    Cost602,                 !- Name
    ,                        !- Type
    Construction,            !- Line Item Type
    602,                     !- Item Name
    ,                        !- Object End-Use Key
    ,                        !- Cost per Each {$}
    36.5;                    !- Cost per Area {$/m2}

  ZoneHVAC:EquipmentList,
    Zone1 Equipment,         !- Name
    ZoneHVAC:IdealLoadsAirSystem,  !- Zone Equipment 1 Object Type
    Central AHU,             !- Zone Equipment 1 Name
    1,                       !- Zone Equipment 1 Cooling Sequence
    1;                       !- Zone Equipment 1 Heating or No-Load Sequence

  ZoneHVAC:EquipmentConnections,
    Zone1,                   !- Zone Name
    Zone1 Equipment,         !- Zone Conditioning Equipment List Name
    Zone1 Supply Inlet,      !- Zone Air Inlet Node or NodeList Name
    ,                        !- Zone Air Exhaust Node or NodeList Name
    Zone1 Zone Air Node,     !- Zone Air Node Name
    Zone1 Return Outlet;     !- Zone Return Air Node Name

  ZoneHVAC:IdealLoadsAirSystem,
    Central AHU,             !- Name
    ,                        !- Availability Schedule Name
    Zone1 Supply Inlet,      !- Zone Supply Air Node Name
    ,                        !- Zone Exhaust Air Node Name
    50,                      !- Maximum Heating Supply Air Temperature {C}
    13,                      !- Minimum Cooling Supply Air Temperature {C}
    0.015,                   !- Maximum Heating Supply Air Humidity Ratio {kgWater/kgDryAir}
    0.01,                    !- Minimum Cooling Supply Air Humidity Ratio {kgWater/kgDryAir}
    NoLimit,                 !- Heating Limit
    ,                        !- Maximum Heating Air Flow Rate {m3/s}
    ,                        !- Maximum Sensible Heating Capacity {W}
    NoLimit,                 !- Cooling Limit
    ,                        !- Maximum Cooling Air Flow Rate {m3/s}
    ,                        !- Maximum Total Cooling Capacity {W}
    ,                        !- Heating Availability Schedule Name
    ,                        !- Cooling Availability Schedule Name
    ConstantSupplyHumidityRatio,  !- Dehumidification Control Type
    ,                        !- Cooling Sensible Heat Ratio {dimensionless}
    ConstantSupplyHumidityRatio,  !- Humidification Control Type
    ,                        !- Design Specification Outdoor Air Object Name
    ,                        !- Outdoor Air Inlet Node Name
    ,                        !- Demand Controlled Ventilation Type
    ,                        !- Outdoor Air Economizer Type
    ,                        !- Heat Recovery Type
    ,                        !- Sensible Heat Recovery Effectiveness {dimensionless}
    ;                        !- Latent Heat Recovery Effectiveness {dimensionless}

  Schedule:Week:Compact,
    Low ACweek Jan,          !- Name
    AllDays,                 !- DayType List 1
    Low ACdayJan;            !- Schedule:Day Name 1

  Schedule:Week:Compact,
    Low ACweek Feb,          !- Name
    AllDays,                 !- DayType List 1
    Low ACday Feb;           !- Schedule:Day Name 1

  Schedule:Week:Compact,
    Low ACweek Mar,          !- Name
    AllDays,                 !- DayType List 1
    Low ACday Mar;           !- Schedule:Day Name 1

  Schedule:Week:Compact,
    Low ACweek Apr,          !- Name
    AllDays,                 !- DayType List 1
    Low ACday Apr;           !- Schedule:Day Name 1

  Schedule:Week:Compact,
    Low ACweek May,          !- Name
    AllDays,                 !- DayType List 1
    Low ACday May;           !- Schedule:Day Name 1

  Schedule:Week:Compact,
    Low ACweek Jun,          !- Name
    AllDays,                 !- DayType List 1
    Low ACday Jun;           !- Schedule:Day Name 1

  Schedule:Week:Compact,
    Low ACweek Jul,          !- Name
    AllDays,                 !- DayType List 1
    Low ACday July;          !- Schedule:Day Name 1

  Schedule:Week:Compact,
    Low ACweek Aug,          !- Name
    AllDays,                 !- DayType List 1
    Low ACday Aug;           !- Schedule:Day Name 1

  Schedule:Week:Compact,
    Low ACweek Sep,          !- Name
    AllDays,                 !- DayType List 1
    Low ACday Sep;           !- Schedule:Day Name 1

  Schedule:Week:Compact,
    Low ACweek Oct,          !- Name
    AllDays,                 !- DayType List 1
    Low ACday Oct;           !- Schedule:Day Name 1

  Schedule:Week:Compact,
    Low ACweek Nov,          !- Name
    AllDays,                 !- DayType List 1
    Low ACday Nov;           !- Schedule:Day Name 1

  Schedule:Week:Compact,
    Low ACweek Dec,          !- Name
    AllDays,                 !- DayType List 1
    Low ACday Dec;           !- Schedule:Day Name 1

  Schedule:Week:Compact,
    High ACweek Jan,         !- Name
    AllDays,                 !- DayType List 1
    High ACday Jan;          !- Schedule:Day Name 1

  Schedule:Week:Compact,
    High ACweek Feb,         !- Name
    AllDays,                 !- DayType List 1
    High ACday Feb;          !- Schedule:Day Name 1

  Schedule:Week:Compact,
    High ACweek Mar,         !- Name
    AllDays,                 !- DayType List 1
    High ACday Mar;          !- Schedule:Day Name 1

  Schedule:Week:Compact,
    High ACweek Apr,         !- Name
    AllDays,                 !- DayType List 1
    High ACday Apr;          !- Schedule:Day Name 1

  Schedule:Week:Compact,
    High ACweek May,         !- Name
    AllDays,                 !- DayType List 1
    High ACday May;          !- Schedule:Day Name 1

  Schedule:Week:Compact,
    High ACweek Jun,         !- Name
    AllDays,                 !- DayType List 1
    High ACday Jun;          !- Schedule:Day Name 1

  Schedule:Week:Compact,
    High ACweek Jul,         !- Name
    AllDays,                 !- DayType List 1
    High ACday Jul;          !- Schedule:Day Name 1

  Schedule:Week:Compact,
    High ACweek Aug,         !- Name
    AllDays,                 !- DayType List 1
    High ACday Aug;          !- Schedule:Day Name 1

  Schedule:Week:Compact,
    High ACweek Sep,         !- Name
    AllDays,                 !- DayType List 1
    High ACday Sep;          !- Schedule:Day Name 1

  Schedule:Week:Compact,
    High ACweek Oct,         !- Name
    AllDays,                 !- DayType List 1
    High ACday Oct;          !- Schedule:Day Name 1

  Schedule:Week:Compact,
    High ACweek Nov,         !- Name
    AllDays,                 !- DayType List 1
    High ACday Nov;          !- Schedule:Day Name 1

  Schedule:Week:Compact,
    High ACweek Dec,         !- Name
    AllDays,                 !- DayType List 1
    High ACday Dec;          !- Schedule:Day Name 1

  Schedule:Compact,
    ALWAYS 4,                !- Name
    Any Number,              !- Schedule Type Limits Name
    Through: 12/31,          !- Field 1
    For: AllDays,            !- Field 2
    Until: 24:00,4;          !- Field 3

  ZoneControl:Thermostat,
    Zone1 Thermostat,        !- Name
    Zone1,                   !- Zone or ZoneList Name
    ALWAYS 4,                !- Control Type Schedule Name
    ThermostatSetpoint:DualSetpoint,  !- Control 1 Object Type
    Office Thermostat Dual SP Control;  !- Control 1 Name

  ThermostatSetpoint:DualSetpoint,
    Office Thermostat Dual SP Control,  !- Name
    Heating setpoint,        !- Heating Setpoint Temperature Schedule Name
    Cooling setpoint;        !- Cooling Setpoint Temperature Schedule Name

  Schedule:Year,
    Heating setpoint,        !- Name
    Any Number,              !- Schedule Type Limits Name
    Low ACweek Jan,          !- Schedule:Week Name 1
    1,                       !- Start Month 1
    1,                       !- Start Day 1
    1,                       !- End Month 1
    31,                      !- End Day 1
    Low ACweek Feb,          !- Schedule:Week Name 2
    2,                       !- Start Month 2
    1,                       !- Start Day 2
    2,                       !- End Month 2
    28,                      !- End Day 2
    Low ACweek Mar,          !- Schedule:Week Name 3
    3,                       !- Start Month 3
    1,                       !- Start Day 3
    3,                       !- End Month 3
    31,                      !- End Day 3
    Low ACweek Apr,          !- Schedule:Week Name 4
    4,                       !- Start Month 4
    1,                       !- Start Day 4
    4,                       !- End Month 4
    30,                      !- End Day 4
    Low ACweek May,          !- Schedule:Week Name 5
    5,                       !- Start Month 5
    1,                       !- Start Day 5
    5,                       !- End Month 5
    31,                      !- End Day 5
    Low ACweek Jun,          !- Schedule:Week Name 6
    6,                       !- Start Month 6
    1,                       !- Start Day 6
    6,                       !- End Month 6
    30,                      !- End Day 6
    Low ACweek Jul,          !- Schedule:Week Name 7
    7,                       !- Start Month 7
    1,                       !- Start Day 7
    7,                       !- End Month 7
    31,                      !- End Day 7
    Low ACweek Aug,          !- Schedule:Week Name 8
    8,                       !- Start Month 8
    1,                       !- Start Day 8
    8,                       !- End Month 8
    31,                      !- End Day 8
    Low ACweek Sep,          !- Schedule:Week Name 9
    9,                       !- Start Month 9
    1,                       !- Start Day 9
    9,                       !- End Month 9
    30,                      !- End Day 9
    Low ACweek Oct,          !- Schedule:Week Name 10
    10,                      !- Start Month 10
    1,                       !- Start Day 10
    10,                      !- End Month 10
    31,                      !- End Day 10
    Low ACweek Nov,          !- Schedule:Week Name 11
    11,                      !- Start Month 11
    1,                       !- Start Day 11
    11,                      !- End Month 11
    30,                      !- End Day 11
    Low ACweek Dec,          !- Schedule:Week Name 12
    12,                      !- Start Month 12
    1,                       !- Start Day 12
    12,                      !- End Month 12
    31;                      !- End Day 12

  Schedule:Year,
    Cooling setpoint,        !- Name
    Any Number,              !- Schedule Type Limits Name
    High ACweek Jan,         !- Schedule:Week Name 1
    1,                       !- Start Month 1
    1,                       !- Start Day 1
    1,                       !- End Month 1
    31,                      !- End Day 1
    High ACweek Feb,         !- Schedule:Week Name 2
    2,                       !- Start Month 2
    1,                       !- Start Day 2
    2,                       !- End Month 2
    28,                      !- End Day 2
    High ACweek Mar,         !- Schedule:Week Name 3
    3,                       !- Start Month 3
    1,                       !- Start Day 3
    3,                       !- End Month 3
    31,                      !- End Day 3
    High ACweek Apr,         !- Schedule:Week Name 4
    4,                       !- Start Month 4
    1,                       !- Start Day 4
    4,                       !- End Month 4
    30,                      !- End Day 4
    High ACweek May,         !- Schedule:Week Name 5
    5,                       !- Start Month 5
    1,                       !- Start Day 5
    5,                       !- End Month 5
    31,                      !- End Day 5
    High ACweek Jun,         !- Schedule:Week Name 6
    6,                       !- Start Month 6
    1,                       !- Start Day 6
    6,                       !- End Month 6
    30,                      !- End Day 6
    High ACweek Jul,         !- Schedule:Week Name 7
    7,                       !- Start Month 7
    1,                       !- Start Day 7
    7,                       !- End Month 7
    31,                      !- End Day 7
    High ACweek Aug,         !- Schedule:Week Name 8
    8,                       !- Start Month 8
    1,                       !- Start Day 8
    8,                       !- End Month 8
    31,                      !- End Day 8
    High ACweek Sep,         !- Schedule:Week Name 9
    9,                       !- Start Month 9
    1,                       !- Start Day 9
    9,                       !- End Month 9
    30,                      !- End Day 9
    High ACweek Oct,         !- Schedule:Week Name 10
    10,                      !- Start Month 10
    1,                       !- Start Day 10
    10,                      !- End Month 10
    31,                      !- End Day 10
    High ACweek Nov,         !- Schedule:Week Name 11
    11,                      !- Start Month 11
    1,                       !- Start Day 11
    11,                      !- End Month 11
    30,                      !- End Day 11
    High ACweek Dec,         !- Schedule:Week Name 12
    12,                      !- Start Month 12
    1,                       !- Start Day 12
    12,                      !- End Month 12
    31;                      !- End Day 12

  Schedule:Day:Hourly,
    Low ACdayJan,            !- Name
    Any Number,              !- Schedule Type Limits Name
    21.4,                    !- Hour 1
    21.4,                    !- Hour 2
    21.4,                    !- Hour 3
    21.4,                    !- Hour 4
    21.4,                    !- Hour 5
    21.4,                    !- Hour 6
    21.4,                    !- Hour 7
    21.4,                    !- Hour 8
    21.4,                    !- Hour 9
    21.4,                    !- Hour 10
    21.4,                    !- Hour 11
    21.4,                    !- Hour 12
    21.4,                    !- Hour 13
    21.4,                    !- Hour 14
    21.4,                    !- Hour 15
    21.4,                    !- Hour 16
    21.4,                    !- Hour 17
    21.4,                    !- Hour 18
    21.4,                    !- Hour 19
    21.4,                    !- Hour 20
    21.4,                    !- Hour 21
    21.4,                    !- Hour 22
    21.4,                    !- Hour 23
    21.4;                    !- Hour 24

  Schedule:Day:Hourly,
    Low ACday Feb,           !- Name
    Any Number,              !- Schedule Type Limits Name
    21.7,                    !- Hour 1
    21.7,                    !- Hour 2
    21.7,                    !- Hour 3
    21.7,                    !- Hour 4
    21.7,                    !- Hour 5
    21.7,                    !- Hour 6
    21.7,                    !- Hour 7
    21.7,                    !- Hour 8
    21.7,                    !- Hour 9
    21.7,                    !- Hour 10
    21.7,                    !- Hour 11
    21.7,                    !- Hour 12
    21.7,                    !- Hour 13
    21.7,                    !- Hour 14
    21.7,                    !- Hour 15
    21.7,                    !- Hour 16
    21.7,                    !- Hour 17
    21.7,                    !- Hour 18
    21.7,                    !- Hour 19
    21.7,                    !- Hour 20
    21.7,                    !- Hour 21
    21.7,                    !- Hour 22