!-Generator IDFEditor 1.13
!-NOTE: All comments with '!-' are ignored by the IDFEditor and are generated automatically.
!-      Use '!' comments if they need to be retained when using the IDFEditor.
!-   ===========  ALL OBJECTS IN CLASS: VERSION ===========

  VERSION,8.5;

!-   ===========  ALL OBJECTS IN CLASS: BUILDING ===========

  Building,
    School Building,         !- Name
    0,                       !- North Axis {deg}
    City,                    !- Terrain
    .03999,                  !- Loads Convergence Tolerance Value
    .4,                      !- Temperature Convergence Tolerance Value {deltaC}
    FullExterior,            !- Solar Distribution
    25,                      !- Maximum Number of Warmup Days
    6;                       !- Minimum Number of Warmup Days

!-   ===========  ALL OBJECTS IN CLASS: TIMESTEP IN HOUR ===========

  Timestep,6;

!-   ===========  ALL OBJECTS IN CLASS: INSIDE CONVECTION ALGORITHM ===========

  SurfaceConvectionAlgorithm:Inside,TARP;

!-   ===========  ALL OBJECTS IN CLASS: OUTSIDE CONVECTION ALGORITHM ===========

  SurfaceConvectionAlgorithm:Outside,TARP;

!-   ===========  ALL OBJECTS IN CLASS: SOLUTION ALGORITHM ===========

  HeatBalanceAlgorithm,ConductionTransferFunction;

!-   ===========  ALL OBJECTS IN CLASS: ZONE VOLUME CAPACITANCE MULTIPLIER ===========

  ZoneCapacitanceMultiplier:ResearchSpecial,
    1,                       !- Temperature Capacity Multiplier
    1,                       !- Humidity Capacity Multiplier
    1,                       !- Carbon Dioxide Capacity Multiplier
    1.0;                     !- Generic Contaminant Capacity Multiplier

!-   ===========  ALL OBJECTS IN CLASS: LOCATION ===========

  Site:Location,
    Belgrade,                !- Name
    44.82,                   !- Latitude {deg}
    22.28,                   !- Longitude {deg}
    1,                       !- Time Zone {hr}
    99;                      !- Elevation {m}

!-   ===========  ALL OBJECTS IN CLASS: DESIGNDAY ===========

  SizingPeriod:DesignDay,
    BelgradeWinter,          !- Name
    1,                       !- Month
    21,                      !- Day of Month
    WinterDesignDay,         !- Day Type
    -11.5,                   !- Maximum Dry-Bulb Temperature {C}
    0,                       !- Daily Dry-Bulb Temperature Range {deltaC}
    ,                        !- Dry-Bulb Temperature Range Modifier Type
    ,                        !- Dry-Bulb Temperature Range Modifier Day Schedule Name
    Wetbulb,                 !- Humidity Condition Type
    -11.5,                   !- Wetbulb or DewPoint at Maximum Dry-Bulb {C}
    ,                        !- Humidity Condition Day Schedule Name
    ,                        !- Humidity Ratio at Maximum Dry-Bulb {kgWater/kgDryAir}
    ,                        !- Enthalpy at Maximum Dry-Bulb {J/kg}
    ,                        !- Daily Wet-Bulb Temperature Range {deltaC}
    100141.3,                !- Barometric Pressure {Pa}
    2.5,                     !- Wind Speed {m/s}
    10,                      !- Wind Direction {deg}
    No,                      !- Rain Indicator
    No,                      !- Snow Indicator
    No,                      !- Daylight Saving Time Indicator
    ASHRAEClearSky,          !- Solar Model Indicator
    ,                        !- Beam Solar Day Schedule Name
    ,                        !- Diffuse Solar Day Schedule Name
    ,                        !- ASHRAE Clear Sky Optical Depth for Beam Irradiance (taub) {dimensionless}
    ,                        !- ASHRAE Clear Sky Optical Depth for Diffuse Irradiance (taud) {dimensionless}
    0;                       !- Sky Clearness

!-   ===========  ALL OBJECTS IN CLASS: GROUNDTEMPERATURES ===========

  Site:GroundTemperature:BuildingSurface,1.67,3.51,7.1,10.5,16.92,20.31,21.24,19.52,15.56,10.62,5.76,2.54;

!-   ===========  ALL OBJECTS IN CLASS: MATERIAL:REGULAR ===========

  Material,
    MineralWoolOut,          !- Name
    VeryRough,               !- Roughness
    %delta%,                 !- Thickness {m}
    .041,                    !- Conductivity {W/m-K}
    50,                      !- Density {kg/m3}
    840,                     !- Specific Heat {J/kg-K}
    .925,                    !- Thermal Absorptance
    .7,                      !- Solar Absorptance
    .7;                      !- Visible Absorptance

  Material,
    MineralWoolRoof,         !- Name
    VeryRough,               !- Roughness
    .3,                      !- Thickness {m}
    .041,                    !- Conductivity {W/m-K}
    50,                      !- Density {kg/m3}
    840,                     !- Specific Heat {J/kg-K}
    .925,                    !- Thermal Absorptance
    .7,                      !- Solar Absorptance
    .7;                      !- Visible Absorptance

  Material,
    Plywood,                 !- Name
    Smooth,                  !- Roughness
    .018,                    !- Thickness {m}
    .14,                     !- Conductivity {W/m-K}
    550,                     !- Density {kg/m3}
    2090,                    !- Specific Heat {J/kg-K}
    .925,                    !- Thermal Absorptance
    .75,                     !- Solar Absorptance
    .75;                     !- Visible Absorptance

  Material,
    WoodRoofIn,              !- Name
    Smooth,                  !- Roughness
    .036,                    !- Thickness {m}
    .08,                     !- Conductivity {W/m-K}
    400,                     !- Density {kg/m3}
    2090,                    !- Specific Heat {J/kg-K}
    .925,                    !- Thermal Absorptance
    .75,                     !- Solar Absorptance
    .75;                     !- Visible Absorptance

  Material,
    WoodOut,                 !- Name
    MediumSmooth,            !- Roughness
    .04,                     !- Thickness {m}
    .13,                     !- Conductivity {W/m-K}
    620,                     !- Density {kg/m3}
    2090,                    !- Specific Heat {J/kg-K}
    .9,                      !- Thermal Absorptance
    .72,                     !- Solar Absorptance
    .72;                     !- Visible Absorptance

  Material,
    WoodFloor,               !- Name
    MediumSmooth,            !- Roughness
    .04,                     !- Thickness {m}
    .14,                     !- Conductivity {W/m-K}
    520,                     !- Density {kg/m3}
    1670,                    !- Specific Heat {J/kg-K}
    .935,                    !- Thermal Absorptance
    .75,                     !- Solar Absorptance
    .75;                     !- Visible Absorptance

  Material,
    KeramicFloor,            !- Name
    MediumSmooth,            !- Roughness
    .01,                     !- Thickness {m}
    .99,                     !- Conductivity {W/m-K}
    1900,                    !- Density {kg/m3}
    880,                     !- Specific Heat {J/kg-K}
    .95,                     !- Thermal Absorptance
    .8,                      !- Solar Absorptance
    .8;                      !- Visible Absorptance

  Material,
    WindInsolation,          !- Name
    Rough,                   !- Roughness
    .002,                    !- Thickness {m}
    .26,                     !- Conductivity {W/m-K}
    1600,                    !- Density {kg/m3}
    960,                     !- Specific Heat {J/kg-K}
    .93,                     !- Thermal Absorptance
    .65,                     !- Solar Absorptance
    .65;                     !- Visible Absorptance

  Material,
    Bitumen,                 !- Name
    VerySmooth,              !- Roughness
    .005,                    !- Thickness {m}
    .17,                     !- Conductivity {W/m-K}
    1500,                    !- Density {kg/m3}
    1050,                    !- Specific Heat {J/kg-K}
    .93,                     !- Thermal Absorptance
    .65,                     !- Solar Absorptance
    .65;                     !- Visible Absorptance

  Material,
    Breack,                  !- Name
    MediumRough,             !- Roughness
    .05,                     !- Thickness {m}
    .47,                     !- Conductivity {W/m-K}
    1200,                    !- Density {kg/m3}
    920,                     !- Specific Heat {J/kg-K}
    .93,                     !- Thermal Absorptance
    .85,                     !- Solar Absorptance
    .85;                     !- Visible Absorptance

  Material,
    Plaster,                 !- Name
    MediumSmooth,            !- Roughness
    .013,                    !- Thickness {m}
    .81,                     !- Conductivity {W/m-K}
    1600,                    !- Density {kg/m3}
    1050,                    !- Specific Heat {J/kg-K}
    .93,                     !- Thermal Absorptance
    .85,                     !- Solar Absorptance
    .85;                     !- Visible Absorptance

  Material,
    Wood,                    !- Name
    Rough,                   !- Roughness
    .06,                     !- Thickness {m}
    .21,                     !- Conductivity {W/m-K}
    750,                     !- Density {kg/m3}
    2100,                    !- Specific Heat {J/kg-K}
    .885,                    !- Thermal Absorptance
    .7,                      !- Solar Absorptance
    .7;                      !- Visible Absorptance

  Material,
    MultBitHidroinsolationRoof,  !- Name
    MediumRough,             !- Roughness
    .015,                    !- Thickness {m}
    .19,                     !- Conductivity {W/m-K}
    1100,                    !- Density {kg/m3}
    1460,                    !- Specific Heat {J/kg-K}
    .665,                    !- Thermal Absorptance
    .65,                     !- Solar Absorptance
    .65;                     !- Visible Absorptance

  Material,
    PlasterIn,               !- Name
    Smooth,                  !- Roughness
    .02,                     !- Thickness {m}
    .81,                     !- Conductivity {W/m-K}
    1600,                    !- Density {kg/m3}
    1005,                    !- Specific Heat {J/kg-K}
    .93,                     !- Thermal Absorptance
    .85,                     !- Solar Absorptance
    .85;                     !- Visible Absorptance

  Material,
    WoodDoor,                !- Name
    Smooth,                  !- Roughness
    .03,                     !- Thickness {m}
    .21,                     !- Conductivity {W/m-K}
    750,                     !- Density {kg/m3}
    2100,                    !- Specific Heat {J/kg-K}
    .885,                    !- Thermal Absorptance
    .7,                      !- Solar Absorptance
    .7;                      !- Visible Absorptance

  Material,
    Glass,                   !- Name
    Smooth,                  !- Roughness
    .005,                    !- Thickness {m}
    .6,                      !- Conductivity {W/m-K}
    2400,                    !- Density {kg/m3}
    770,                     !- Specific Heat {J/kg-K}
    .9,                      !- Thermal Absorptance
    .94,                     !- Solar Absorptance
    .94;                     !- Visible Absorptance

  Material,
    Splite,                  !- Name
    VerySmooth,              !- Roughness
    .0001,                   !- Thickness {m}
    200,                     !- Conductivity {W/m-K}
    1,                       !- Density {kg/m3}
    1000,                    !- Specific Heat {J/kg-K}
    .96,                     !- Thermal Absorptance
    .96,                     !- Solar Absorptance
    .96;                     !- Visible Absorptance

!-   ===========  ALL OBJECTS IN CLASS: MATERIAL:AIR ===========

  Material:AirGap,
    OutAir,                  !- Name
    .16;                     !- Thermal Resistance {m2-K/W}

  Material:AirGap,
    InAir,                   !- Name
    .18;                     !- Thermal Resistance {m2-K/W}

!-   ===========  ALL OBJECTS IN CLASS: MATERIAL:WINDOWGLASS ===========

  WindowMaterial:Glazing,
    WindowGlass,             !- Name
    SpectralAverage,         !- Optical Data Type
    ,                        !- Window Glass Spectral Data Set Name
    .005,                    !- Thickness {m}
    .9,                      !- Solar Transmittance at Normal Incidence
    .031,                    !- Front Side Solar Reflectance at Normal Incidence
    .031,                    !- Back Side Solar Reflectance at Normal Incidence
    .9,                      !- Visible Transmittance at Normal Incidence
    .05,                     !- Front Side Visible Reflectance at Normal Incidence
    .05,                     !- Back Side Visible Reflectance at Normal Incidence
    ,                        !- Infrared Transmittance at Normal Incidence
    .84,                     !- Front Side Infrared Hemispherical Emissivity
    .84,                     !- Back Side Infrared Hemispherical Emissivity
    .9;                      !- Conductivity {W/m-K}

  WindowMaterial:Glazing,
    DoorGlass,               !- Name
    SpectralAverage,         !- Optical Data Type
    ,                        !- Window Glass Spectral Data Set Name
    .008,                    !- Thickness {m}
    .9,                      !- Solar Transmittance at Normal Incidence
    .031,                    !- Front Side Solar Reflectance at Normal Incidence
    .031,                    !- Back Side Solar Reflectance at Normal Incidence
    .9,                      !- Visible Transmittance at Normal Incidence
    .05,                     !- Front Side Visible Reflectance at Normal Incidence
    .05,                     !- Back Side Visible Reflectance at Normal Incidence
    0,                       !- Infrared Transmittance at Normal Incidence
    .84,                     !- Front Side Infrared Hemispherical Emissivity
    .84,                     !- Back Side Infrared Hemispherical Emissivity
    .9;                      !- Conductivity {W/m-K}

!-   ===========  ALL OBJECTS IN CLASS: MATERIAL:WINDOWGAS ===========

  WindowMaterial:Gas,
    WindowGas,               !- Name
    Air,                     !- Gas Type
    .02;                     !- Thickness {m}

!-   ===========  ALL OBJECTS IN CLASS: CONSTRUCTION ===========

  Construction,
    OutWall,                 !- Name
    WoodOut,                 !- Outside Layer
    OutAir,                  !- Layer 2
    WindInsolation,          !- Layer 3
    MineralWoolOut,          !- Layer 4
    Bitumen,                 !- Layer 5
    Plaster;                 !- Layer 6

  Construction,
    OutSupportWall,          !- Name
    Breack,                  !- Outside Layer
    Plaster,                 !- Layer 2
    OutAir,                  !- Layer 3
    WindInsolation,          !- Layer 4
    MineralWoolOut,          !- Layer 5
    Bitumen,                 !- Layer 6
    Plaster;                 !- Layer 7

  Construction,
    BasicFloor,              !- Name
    Breack,                  !- Outside Layer
    Plaster,                 !- Layer 2
    MineralWoolOut,          !- Layer 3
    Bitumen,                 !- Layer 4
    Plaster,                 !- Layer 5
    WoodFloor;               !- Layer 6

  Construction,
    BasicFloorWC,            !- Name
    Breack,                  !- Outside Layer
    Plaster,                 !- Layer 2
    MineralWoolOut,          !- Layer 3
    Bitumen,                 !- Layer 4
    Plaster,                 !- Layer 5
    KeramicFloor;            !- Layer 6

  Construction,
    Floor1,                  !- Name
    WoodFloor,               !- Outside Layer
    Wood,                    !- Layer 2
    WoodRoofIn;              !- Layer 3

  Construction,
    Floor1WC,                !- Name
    KeramicFloor,            !- Outside Layer
    Plaster,                 !- Layer 2
    Wood,                    !- Layer 3
    WoodRoofIn;              !- Layer 4

  Construction,
    Roof,                    !- Name
    MultBitHidroinsolationRoof,  !- Outside Layer
    Plywood,                 !- Layer 2
    MineralWoolRoof,         !- Layer 3
    WoodRoofIn;              !- Layer 4

  Construction,
    InWall,                  !- Name
    PlasterIn,               !- Outside Layer
    InAir,                   !- Layer 2
    PlasterIn;               !- Layer 3

  Construction,
    InDoor,                  !- Name
    WoodDoor;                !- Outside Layer

  Construction,
    OutDoor,                 !- Name
    DoorGlass,               !- Outside Layer
    WindowGas,               !- Layer 2
    DoorGlass;               !- Layer 3

  Construction,
    Window,                  !- Name
    WindowGlass,             !- Outside Layer
    WindowGas,               !- Layer 2
    WindowGlass,             !- Layer 3
    WindowGas,               !- Layer 4
    WindowGlass;             !- Layer 5

  Construction,
    GroundWall,              !- Name
    Plaster,                 !- Outside Layer
    MineralWoolOut,          !- Layer 2
    Bitumen,                 !- Layer 3
    Breack,                  !- Layer 4
    Plaster;                 !- Layer 5

  Construction,
    GlassWall,               !- Name
    Glass,                   !- Outside Layer
    InAir,                   !- Layer 2
    Glass,                   !- Layer 3
    InAir,                   !- Layer 4
    Glass;                   !- Layer 5

  Construction,
    LiftWall,                !- Name
    PlasterIn,               !- Outside Layer
    Plywood,                 !- Layer 2
    MineralWoolOut,          !- Layer 3
    Plywood,                 !- Layer 4
    InAir,                   !- Layer 5
    Glass;                   !- Layer 6

  Construction,
    SpliteZone,              !- Name
    Splite;                  !- Outside Layer

!-   ===========  ALL OBJECTS IN CLASS: ZONE ===========

  Zone,
    WorkZone,                !- Name
    0,                       !- Direction of Relative North {deg}
    0,                       !- X Origin {m}
    0,                       !- Y Origin {m}
    0,                       !- Z Origin {m}
    1,                       !- Type
    1,                       !- Multiplier
    0,                       !- Ceiling Height {m}
    0,                       !- Volume {m3}
    autocalculate,           !- Floor Area {m2}
    TARP;                    !- Zone Inside Convection Algorithm

  Zone,
    KitchenZone,             !- Name
    0,                       !- Direction of Relative North {deg}
    0,                       !- X Origin {m}
    0,                       !- Y Origin {m}
    0,                       !- Z Origin {m}
    1,                       !- Type
    1,                       !- Multiplier
    0,                       !- Ceiling Height {m}
    0,                       !- Volume {m3}
    autocalculate,           !- Floor Area {m2}
    TARP;                    !- Zone Inside Convection Algorithm

  Zone,
    EntranceZone1,           !- Name
    0,                       !- Direction of Relative North {deg}
    0,                       !- X Origin {m}
    0,                       !- Y Origin {m}
    0,                       !- Z Origin {m}
    1,                       !- Type
    1,                       !- Multiplier
    0,                       !- Ceiling Height {m}
    0,                       !- Volume {m3}
    autocalculate,           !- Floor Area {m2}
    TARP;                    !- Zone Inside Convection Algorithm

  Zone,
    EntranceZone2,           !- Name
    0,                       !- Direction of Relative North {deg}
    0,                       !- X Origin {m}
    0,                       !- Y Origin {m}
    0,                       !- Z Origin {m}
    1,                       !- Type
    1,                       !- Multiplier
    0,                       !- Ceiling Height {m}
    0,                       !- Volume {m3}
    autocalculate,           !- Floor Area {m2}
    TARP;                    !- Zone Inside Convection Algorithm

  Zone,
    HoleZone1,               !- Name
    0,                       !- Direction of Relative North {deg}
    0,                       !- X Origin {m}
    0,                       !- Y Origin {m}
    0,                       !- Z Origin {m}
    1,                       !- Type
    1,                       !- Multiplier
    0,                       !- Ceiling Height {m}
    0,                       !- Volume {m3}
    autocalculate,           !- Floor Area {m2}
    TARP;                    !- Zone Inside Convection Algorithm

  Zone,
    HoleZone2,               !- Name
    0,                       !- Direction of Relative North {deg}
    0,                       !- X Origin {m}
    0,                       !- Y Origin {m}
    0,                       !- Z Origin {m}
    1,                       !- Type
    1,                       !- Multiplier
    0,                       !- Ceiling Height {m}
    0,                       !- Volume {m3}
    autocalculate,           !- Floor Area {m2}
    TARP;                    !- Zone Inside Convection Algorithm

  Zone,
    KeeperZone,              !- Name
    0,                       !- Direction of Relative North {deg}
    0,                       !- X Origin {m}
    0,                       !- Y Origin {m}
    0,                       !- Z Origin {m}
    1,                       !- Type
    1,                       !- Multiplier
    0,                       !- Ceiling Height {m}
    0,                       !- Volume {m3}
    autocalculate,           !- Floor Area {m2}
    TARP;                    !- Zone Inside Convection Algorithm

  Zone,
    Lift,                    !- Name
    0,                       !- Direction of Relative North {deg}
    0,                       !- X Origin {m}
    0,                       !- Y Origin {m}
    0,                       !- Z Origin {m}
    1,                       !- Type
    1,                       !- Multiplier
    0,                       !- Ceiling Height {m}
    0,                       !- Volume {m3}
    autocalculate,           !- Floor Area {m2}
    TARP;                    !- Zone Inside Convection Algorithm

  Zone,
    MusiceZone,              !- Name
    0,                       !- Direction of Relative North {deg}
    0,                       !- X Origin {m}
    0,                       !- Y Origin {m}
    0,                       !- Z Origin {m}
    1,                       !- Type
    1,                       !- Multiplier
    0,                       !- Ceiling Height {m}
    0,                       !- Volume {m3}
    autocalculate,           !- Floor Area {m2}
    TARP;                    !- Zone Inside Convection Algorithm

  Zone,
    DirectionZone,           !- Name
    0,                       !- Direction of Relative North {deg}
    0,                       !- X Origin {m}
    0,                       !- Y Origin {m}
    0,                       !- Z Origin {m}
    1,                       !- Type
    1,                       !- Multiplier
    0,                       !- Ceiling Height {m}
    0,                       !- Volume {m3}
    autocalculate,           !- Floor Area {m2}
    TARP;                    !- Zone Inside Convection Algorithm

  Zone,
    CloakZone1,              !- Name
    0,                       !- Direction of Relative North {deg}
    0,                       !- X Origin {m}
    0,                       !- Y Origin {m}
    0,                       !- Z Origin {m}
    1,                       !- Type
    1,                       !- Multiplier
    0,                       !- Ceiling Height {m}
    0,                       !- Volume {m3}
    autocalculate,           !- Floor Area {m2}
    TARP;                    !- Zone Inside Convection Algorithm

  Zone,
    ServiceZone,             !- Name
    0,                       !- Direction of Relative North {deg}
    0,                       !- X Origin {m}
    0,                       !- Y Origin {m}
    0,                       !- Z Origin {m}
    1,                       !- Type
    1,                       !- Multiplier
    0,                       !- Ceiling Height {m}
    0,                       !- Volume {m3}
    autocalculate,           !- Floor Area {m2}
    TARP;                    !- Zone Inside Convection Algorithm

  Zone,
    FurnaceZone,             !- Name
    0,                       !- Direction of Relative North {deg}
    0,                       !- X Origin {m}
    0,                       !- Y Origin {m}
    0,                       !- Z Origin {m}
    1,                       !- Type
    1,                       !- Multiplier
    0,                       !- Ceiling Height {m}
    0,                       !- Volume {m3}
    autocalculate,           !- Floor Area {m2}
    TARP;                    !- Zone Inside Convection Algorithm

  Zone,
    WashingZone1,            !- Name
    0,                       !- Direction of Relative North {deg}
    0,                       !- X Origin {m}
    0,                       !- Y Origin {m}
    0,                       !- Z Origin {m}
    1,                       !- Type
    1,                       !- Multiplier
    0,                       !- Ceiling Height {m}
    0,                       !- Volume {m3}
    autocalculate,           !- Floor Area {m2}
    TARP;                    !- Zone Inside Convection Algorithm

  Zone,
    GymnasticZone,           !- Name
    0,                       !- Direction of Relative North {deg}
    0,                       !- X Origin {m}
    0,                       !- Y Origin {m}
    0,                       !- Z Origin {m}
    1,                       !- Type
    1,                       !- Multiplier
    0,                       !- Ceiling Height {m}
    0,                       !- Volume {m3}
    autocalculate,           !- Floor Area {m2}
    TARP;                    !- Zone Inside Convection Algorithm

  Zone,
    BigZone,                 !- Name
    0,                       !- Direction of Relative North {deg}
    0,                       !- X Origin {m}
    0,                       !- Y Origin {m}
    0,                       !- Z Origin {m}
    1,                       !- Type
    1,                       !- Multiplier
    0,                       !- Ceiling Height {m}
    0,                       !- Volume {m3}
    autocalculate,           !- Floor Area {m2}
    TARP;                    !- Zone Inside Convection Algorithm

  Zone,
    ClassZone1,              !- Name
    0,                       !- Direction of Relative North {deg}
    0,                       !- X Origin {m}
    0,                       !- Y Origin {m}
    0,                       !- Z Origin {m}
    1,                       !- Type
    1,                       !- Multiplier
    0,                       !- Ceiling Height {m}
    0,                       !- Volume {m3}
    autocalculate,           !- Floor Area {m2}
    TARP;                    !- Zone Inside Convection Algorithm

  Zone,
    DepotZone,               !- Name
    0,                       !- Direction of Relative North {deg}
    0,                       !- X Origin {m}
    0,                       !- Y Origin {m}
    0,                       !- Z Origin {m}
    1,                       !- Type
    1,                       !- Multiplier
    0,                       !- Ceiling Height {m}
    0,                       !- Volume {m3}
    autocalculate,           !- Floor Area {m2}
    TARP;                    !- Zone Inside Convection Algorithm

  Zone,
    CommonZone,              !- Name
    0,                       !- Direction of Relative North {deg}
    0,                       !- X Origin {m}
    0,                       !- Y Origin {m}
    0,                       !- Z Origin {m}
    1,                       !- Type
    1,                       !- Multiplier
    0,                       !- Ceiling Height {m}
    0,                       !- Volume {m3}
    autocalculate,           !- Floor Area {m2}
    TARP;                    !- Zone Inside Convection Algorithm

  Zone,
    OfficeZone,              !- Name
    0,                       !- Direction of Relative North {deg}
    0,                       !- X Origin {m}
    0,                       !- Y Origin {m}
    0,                       !- Z Origin {m}
    1,                       !- Type
    1,                       !- Multiplier
    0,                       !- Ceiling Height {m}
    0,                       !- Volume {m3}
    autocalculate,           !- Floor Area {m2}
    TARP;                    !- Zone Inside Convection Algorithm

  Zone,
    ClassZone2,              !- Name
    0,                       !- Direction of Relative North {deg}
    0,                       !- X Origin {m}
    0,                       !- Y Origin {m}
    0,                       !- Z Origin {m}
    1,                       !- Type
    1,                       !- Multiplier
    0,                       !- Ceiling Height {m}
    0,                       !- Volume {m3}
    autocalculate,           !- Floor Area {m2}
    TARP;                    !- Zone Inside Convection Algorithm

!-   ===========  ALL OBJECTS IN CLASS: SURFACEGEOMETRY ===========

  GlobalGeometryRules,
    LowerLeftCorner,         !- Starting Vertex Position
    Counterclockwise,        !- Vertex Entry Direction
    Relative;                !- Coordinate System
